STNEP/case300_sin_distr_cost_r.m
function mpc =case300_sin_distr_cost_r
%CASE300    Power flow data for IEEE 300 bus test case.
%   Please see CASEFORMAT for details on the case file format.
%   This data was converted from IEEE Common Data Format
%   (ieee300cdf.txt) on 18-Nov-2014 by cdf2matp, rev. 2393
%   See end of file for warnings generated during conversion.
%
%   Converted from IEEE CDF file from:
%       https://labs.ece.uw.edu/pstca/
% 
%  13/05/91 CYME INTERNATIONAL    100.0 1991 S IEEE 300-BUS TEST SYSTEM

%   MATPOWER 

%% MATPOWER Case Format : Version 2
mpc.version = '2';

%%-----  Power Flow Data  -----%%
%% system MVA base
mpc.baseMVA = 100;

%% bus data
%	        bus_i	    type	     Pd	          Qd	       Gs	        Bs	        area	    Vm	         Va	          baseKV	     zone	    Vmax	Vmin
mpc.bus = [
            1            1           72         39.2            0            0            1       1.0284         5.95          115            1         1.06          0.94
            2            1         44.8           12            0            0            1       1.0354         7.74          115            1         1.06         0.94
            3            1           16            0            0            0            1       0.9971         6.64          230            1         1.06         0.94
            4            1            0            0            0            0            1       1.0308         4.71          345            1         1.06         0.94
            5            1        282.4          104            0            0            1       1.0191         4.68          115            1         1.06         0.94
            6            1           96         32.8            0            0            1       1.0312         6.99          115            1         1.06         0.94
            7            1            0            0            0            0            1       0.9934         6.19          230            1         1.06         0.94
            8            2         50.4         11.2            0            0            1       1.0153          2.4          115            1         1.06         0.94
            9            1         76.8         34.4            0            0            1       1.0034         2.85          115            1         1.06         0.94
           10            2        122.4         26.4            0            0            1       1.0205         1.35          230            1         1.06         0.94
           11            1         66.4         16.8            0            0            1       1.0057         2.46          115            1         1.06         0.94
           12            1            0            0            0            0            1       0.9974         5.21          230            1         1.06         0.94
           13            1         46.4            8            0            0            1       0.9977        -0.55          115            1         1.06         0.94
           14            1          128           48            0            0            1       0.9991        -4.81          115            1         1.06         0.94
           15            1       101.36         18.4            0            0            1       1.0343        -8.59          115            1         1.06         0.94
           16            1            0            0            0            0            1       1.0315        -2.65          345            1         1.06         0.94
           17            1        448.8          150            0            0            1       1.0649        -13.1          115            1         1.06         0.94
           19            1            0            0            0            0            1        0.982         1.08          230            1         1.06         0.94
           20            2          484           96            0            0            1        1.001        -2.46          115            1         1.06         0.94
           21            1         61.6          0.8            0            0            1       0.9752         1.62          230            1         1.06         0.94
           22            1         64.8         18.4            0            0            1       0.9963        -1.97          115            1         1.06         0.94
           23            1         16.8          5.6            0            0            1       1.0501         3.94          115            1         1.06         0.94
           24            1            0            0            0            0            1       1.0057         6.02          230            1         1.06         0.94
           25            1           36          9.6            0            0            1       1.0234         1.44          115            1         1.06         0.94
           26            1         22.4          7.2            0            0            1       0.9986        -1.73          115            1         1.06         0.94
           27            1         55.2         10.4            0            0            1        0.975         -4.9          115            1         1.06         0.94
           33            1           44          4.8            0            0            1       1.0244       -12.02          115            1         1.06         0.94
           34            1            0            0            0            0            1       1.0414        -7.94          345            1         1.06         0.94
           35            1            0            0            0            0            1       0.9757       -25.72          115            1         1.06         0.94
           36            1            0            0            0            0            1       1.0011       -22.59          230            1         1.06         0.94
           37            1           68         25.6            0            0            1       1.0201       -11.23          115            1         1.06         0.94
           38            1          124         14.4            0            0            1       1.0202       -12.56          115            1         1.06         0.94
           39            1            0            0            0            0            1       1.0535        -5.81          345            1         1.06         0.94
           40            1         36.8        -16.8            0            0            1       1.0216       -12.78          115            1         1.06         0.94
           41            1         68.8            0            0            0            1       1.0292       -10.45          115            1         1.06         0.94
           42            1            0            0            0            0            1       1.0448        -7.44          345            1         1.06         0.94
           43            1         31.2          7.2            0            0            1       1.0006       -16.79          115            1         1.06         0.94
           44            1          156         23.2            0            0            1       1.0086       -17.47          115            1         1.06         0.94
           45            1            0            0            0            0            1       1.0215       -14.74          230            1         1.06         0.94
           46            1            0            0            0            0            1       1.0344       -11.75          345            1         1.06         0.94
           47            1         46.4         9.44            0            0            1       0.9777       -23.17          115            1         1.06         0.94
           48            1         32.8         15.2            0            0            1       1.0019       -16.09          115            1         1.06         0.94
           49            1         73.6         20.8            0            0            1       1.0475        -2.95          115            1         1.06         0.94
           51            1           -4            4            0            0            1       1.0253        -8.15          115            1         1.06         0.94
           52            1         48.8         22.4            0            0            1       0.9979       -11.86          115            1         1.06         0.94
           53            1         55.2          2.4            0            0            1       0.9959        -17.6          115            1         1.06         0.94
           54            1            8          0.8            0            0            1        1.005       -16.25          115            1         1.06         0.94
           55            1         17.6            8            0            0            1        1.015       -12.21          115            1         1.06         0.94
           57            1         78.4           16            0            0            1       1.0335           -8          115            1         1.06         0.94
           58            1         11.2          0.8            0            0            1       0.9918        -5.99          115            1         1.06         0.94
           59            1        174.4         84.8            0            0            1       0.9789        -5.29          115            1         1.06         0.94
           60            1            0            0            0            0            1       1.0246        -9.56          230            1         1.06         0.94
           61            1        181.6           88            0            0            1       0.9906        -3.47          115            1         1.06         0.94
           62            1            0            0            0            0            1        1.016         -1.1          230            1         1.06         0.94
           63            2           56           24            0            0            1       0.9583       -17.62          115            1         1.06         0.94
           64            1            0            0            0            0            1        0.948       -12.97          230            1         1.06         0.94
           69            1            0            0            0            0            1        0.963       -25.66          115            1         1.06         0.94
           70            1         44.8           16            0            0            1       0.9513       -35.16          115            1         1.06         0.94
           71            1         92.8         30.4            0            0            1       0.9793       -29.88          115            1         1.06         0.94
           72            1         45.6         15.2            0            0            1       0.9696       -27.48          115            1         1.06         0.94
           73            1        179.2         56.8            0            0            1       0.9775       -25.77          115            1         1.06         0.94
           74            1            0            0            0            0            1       0.9964          -22          230            1         1.06         0.94
           76            2        166.4         85.6            0            0            1       0.9632       -26.54          115            1         1.06         0.94
           77            1         59.2         22.4            0            0            1       0.9837       -24.94          115            1         1.06         0.94
           78            1            0            0            0            0            1         0.99       -24.05          115            1         1.06         0.94
           79            1         38.4         11.2            0            0            1        0.982       -24.97          115            1         1.06         0.94
           80            1         22.4          5.6            0            0            1       0.9872       -24.97          115            1         1.06         0.94
           81            1            0            0            0            0            1        1.034       -18.89          345            1         1.06         0.94
           84            2         29.6         10.4            0            0            1        1.025       -17.16          115            1         1.06         0.94
           85            1            0            0            0            0            1       0.9872       -17.68          230            1         1.06         0.94
           86            1            0            0            0            0            1       0.9909       -14.19          230            1         1.06         0.94
           87            1            0            0            0            0            1       0.9921        -7.77          230            1         1.06         0.94
           88            1            0            0            0            0            1       1.0151       -20.96          230            1         1.06         0.94
           89            1        35.36            0            0            0            1       1.0317       -11.13          115            1         1.06         0.94
           90            1         52.8            0            0            0            1       1.0272       -11.23          115            1         1.06         0.94
           91            2        13.92            0            0            0            1        1.052         -9.4          115            1         1.06         0.94
           92            2        12.64            0            0            0            1        1.052         -6.2          115            1         1.06         0.94
           94            1        48.24            0            0            0            1        0.993        -9.42          115            1         1.06         0.94
           97            1        31.92            0            0            0            1       1.0183       -13.24          115            1         1.06         0.94
           98            2        53.36            0            0            0            1            1        -14.6          115            1         1.06         0.94
           99            1         66.8            0            0            0            1       0.9894       -20.27          115            1         1.06         0.94
          100            1            0            0            0            0            1        1.006       -14.45          115            1         1.06         0.94
          102            1        62.24            0            0            0            1       1.0008       -15.23          115            1         1.06         0.94
          103            1         25.6            0            0            0            1       1.0288       -12.06          115            1         1.06         0.94
          104            1         6.88            0            0            0            1       0.9958       -17.33          115            1         1.06         0.94
          105            1        39.68            0            0            0            1       1.0223       -12.94          115            1         1.06         0.94
          107            1         3.68            0            0            0            1       1.0095       -16.03          115            1         1.06         0.94
          108            2        89.68            0            0            0            1         0.99       -20.26          115            1         1.06         0.94
          109            1        24.56            0            0            0            1       0.9749       -26.06          115            1         1.06         0.94
          110            1         50.4            0            0            0            1        0.973       -24.72          115            1         1.06         0.94
          112            1        15.68            0            0            0            1       0.9725       -28.69          115            1         1.06         0.94
          113            1        20.96            0            0            0            1         0.97       -25.38          115            1         1.06         0.94
          114            1        14.56            0            0            0            1       0.9747       -28.59          115            1         1.06         0.94
          115            1            0            0            0            0            1       0.9603       -13.57          115            2         1.06         0.94
          116            1            0            0            0            0            1       1.0249       -12.69          115            2         1.06         0.94
          117            1            0            0            0          325            1       0.9348        -4.72          115            2         1.06         0.94
          118            1        11.28          150            0            0            1       0.9298        -4.12          115            2         1.06         0.94
          119            2            0            0            0            0            1       1.0435         5.17          115            2         1.06         0.94
          120            1        621.6          150            0           55            1       0.9584        -8.77          115            2         1.06         0.94
          121            1          428           44            0            0            1       0.9871       -12.64          115            2         1.06         0.94
          122            1       183.28         9.44            0            0            1       0.9728       -14.36          115            2         1.06         0.94
          123            1         62.4         1.12            0            0            1       1.0006       -17.64          115            2         1.06         0.94
          124            2       221.12        47.44            0            0            1       1.0233       -13.49          115            2         1.06         0.94
          125            2       411.84        66.16            0            0            1       1.0103       -18.43          115            2         1.06         0.94
          126            1        46.32         4.08            0            0            1       0.9978       -12.86          115            2         1.06         0.94
          127            1       304.64         29.6            0            0            1       1.0001       -10.52          230            2         1.06         0.94
          128            1            0            0            0            0            1       1.0024        -4.78          230            2         1.06         0.94
          129            1            0            0            0            0            1       1.0028         -4.4          230            2         1.06         0.94
          130            1            0            0            0            0            1       1.0191         5.56          230            2         1.06         0.94
          131            1            0            0            0            0            1       0.9861         6.06          230            2         1.06         0.94
          132            1            0            0            0            0            1       1.0045         3.04          230            2         1.06         0.94
          133            1            0            0            0            0            1        1.002        -5.46          230            2         1.06         0.94
          134            1            0            0            0            0            1        1.022        -8.04          230            2         1.06         0.94
          135            1       135.36        33.28            0            0            1       1.0193        -6.76          230            2         1.06         0.94
          136            1        44.16        14.56            0            0            1       1.0476         1.54          230            2         1.06         0.94
          137            1       218.88        79.84            0            0            1       1.0471        -1.45          230            2         1.06         0.94
          138            2       815.36       108.16            0            0            1        1.055        -6.35          230            2         1.06         0.94
          139            1          476        66.64            0            0            1       1.0117        -3.57          115            2         1.06         0.94
          140            1       310.16        91.76            0            0            1        1.043        -3.44          230            2         1.06         0.94
          141            2          116         46.4            0            0            1        1.051         0.05          230            2         1.06         0.94
          142            1         45.2         19.6            0            0            1       1.0155        -2.77          230            2         1.06         0.94
          143            2         71.6         28.4            0            0            1       1.0435         4.03          230            2         1.06         0.94
          144            1            0            0            0            0            1        1.016         -0.7          230            2         1.06         0.94
          145            1         19.2         11.2            0            0            1       1.0081        -0.16          230            2         1.06         0.94
          146            2            0            0            0            0            1       1.0528         4.32          230            2         1.06         0.94
          147            2            0            0            0            0            1       1.0528         8.36          230            2         1.06         0.94
          148            1         50.4           20            0            0            1       1.0577         0.28          230            2         1.06         0.94
          149            2            0            0            0            0            1       1.0735         5.23          230            2         1.06         0.94
          150            1            0            0            0            0            1       0.9869         6.34          230            2         1.06         0.94
          151            1            0            0            0            0            1       1.0048         4.13          230            2         1.06         0.94
          152            2         13.6          7.2            0            0            1       1.0535         9.24          230            2         1.06         0.94
          153            2            0            0            0            0            1       1.0435        10.46          230            2         1.06         0.94
          154            1           56            4            0         34.5            1       0.9663         -1.8          115            2         1.06         0.94
          155            1          160           40            0            0            1       1.0177         6.75          230            2         1.06         0.94
          156            2           60           40            0            0            1        0.963         5.15          115            2         1.06         0.94
          157            1         98.8       -19.44            0            0            1       0.9845       -11.93          230            2         1.06         0.94
          158            1            0            0            0            0            1       0.9987        -11.4          230            2         1.06         0.94
          159            1         26.4         13.2            0            0            1       0.9867        -9.82          230            2         1.06         0.94
          160            1            0            0            0            0            1       0.9998       -12.55          230            2         1.06         0.94
          161            1           28           12            0            0            1        1.036         8.85          230            2         1.06         0.94
          162            1           68         19.2            0            0            1       0.9918         18.5          230            2         1.06         0.94
          163            1            0         0.32            0            0            1        1.041         2.91          230            2         1.06         0.94
          164            1            0            0            0         -212            1       0.9839         9.66          230            2         1.06         0.94
          165            1            0            0            0            0            1       1.0002        26.31          230            2         1.06         0.94
          166            1            0            0            0         -103            1       0.9973        30.22          230            2         1.06         0.94
          167            1       239.92        76.56            0            0            1       0.9715        -6.91          230            2         1.06         0.94
          168            1            0            0            0            0            1       1.0024         -4.8          230            2         1.06         0.94
          169            1            0            0            0            0            1       0.9879        -6.68          230            2         1.06         0.94
          170            2       385.44          150            0            0            1        0.929         0.09          115            2         1.06         0.94
          171            2       610.88          150            0            0            1       0.9829        -9.94          115            2         1.06         0.94
          172            1         21.2            0            0            0            1       1.0244        -6.22          115            2         1.06         0.94
          173            1        130.8         34.4            0           53            1       0.9837       -12.75          115            2         1.06         0.94
          174            1            0            0            0            0            1       1.0622        -2.69          115            2         1.06         0.94
          175            1        140.8         66.4            0            0            1        0.973        -7.21          115            2         1.06         0.94
          176            2            4          3.2            0            0            1       1.0522         4.67          115            2         1.06         0.94
          177            2         22.4          9.6            0            0            1       1.0077         0.62          115            2         1.06         0.94
          178            1       341.92       138.88            0            0            1       0.9397        -6.56          115            2         1.06         0.94
          179            1         59.2         23.2            0           45            1       0.9699        -9.37          115            2         1.06         0.94
          180            1         55.6        39.44            0            0            1       0.9793        -3.09          115            2         1.06         0.94
          181            1        58.72            0            0            0            1       1.0518        -1.33          230            2         1.06         0.94
          182            1       192.56         71.2            0            0            1       1.0447        -4.19          230            2         1.06         0.94
          183            1           32          3.2            0            0            1       0.9717         7.12          115            2         1.06         0.94
          184            1       109.44        13.28            0            0            1       1.0386        -6.85          230            2         1.06         0.94
          185            2            0            0            0            0            1       1.0522        -4.33          230            2         1.06         0.94
          186            2        47.84        19.44            0            0            1        1.065         2.17          230            2         1.06         0.94
          187            2        47.84        19.44            0            0            1        1.065          1.4          230            2         1.06         0.94
          188            1       146.08        34.88            0            0            1       1.0533        -0.72          230            2         1.06         0.94
          189            1          5.6          1.6            0            0            1       0.9975       -25.84           66            3         1.06         0.94
          190            2            0            0            0         -150            1       1.0551       -20.62          345            3         1.06         0.94
          191            3        391.2         42.4            0            0            1       1.0435        12.25          230            3         1.06         0.94
          192            1          640         57.6            0            0            1       0.9374       -11.18          230            3         1.06         0.94
          193            1            0            0            0            0            1       0.9897       -26.09           66            3         1.06         0.94
          194            1            0            0            0            0            1       1.0489       -19.21          345            3         1.06         0.94
          195            1            0            0            0            0            1       1.0357       -20.79          345            3         1.06         0.94
          196            1            8          2.4            0            0            1       0.9695       -25.32          115            3         1.06         0.94
          197            1         34.4         11.2            0            0            1       0.9907       -23.72          115            3         1.06         0.94
          198            2         51.2         16.8            0            0            1        1.015       -20.58          115            3         1.06         0.94
          199            1           28          9.6            0            0            1       0.9528       -26.05          115            3         1.06         0.94
          200            1         21.6          9.6            0            0            1        0.955       -25.93          115            3         1.06         0.94
          201            1         32.8         11.2            0            0            1       0.9692       -27.49           66            1         1.06         0.94
          202            1         30.4         10.4            0            0            1       0.9908       -25.33           66            3         1.06         0.94
          203            1         33.6         11.2            0            0            1       1.0033       -22.35          115            3         1.06         0.94
          204            1         57.6         19.2            0            0            1       0.9718        -25.7           66            3         1.06         0.94
          205            1            0           -4            0            0            1       0.9838       -26.07           66            3         1.06         0.94
          206            1          9.6          1.6            0            0            1       0.9992       -27.41           66            3         1.06         0.94
          207            1        -16.8       -11.36            0            0            1       1.0137       -27.44           66            1         1.06         0.94
          208            1          5.6          1.6            0            0            1       0.9929       -26.28           66            3         1.06         0.94
          209            1         30.4         10.4            0            0            1       0.9999       -25.66           66            3         1.06         0.94
          210            1            0            0            0            0            1       0.9788       -24.22          115            3         1.06         0.94
          211            1         76.8          5.6            0            0            1       1.0017       -23.31          115            3         1.06         0.94
          212            1            0            0            0            0            1       1.0132       -22.51          138            3         1.06         0.94
          213            2            0            0            0            0            1         1.01       -11.67           69            3         1.06         0.94
          214            1         17.6         12.8            0            0            1       0.9919       -17.53          138            3         1.06         0.94
          215            1         37.6         20.8            0            0            1       0.9866       -20.23          138            3         1.06         0.94
          216            1        140.8           84            0            0            1       0.9751       -22.53          138            3         1.06         0.94
          217            1           80           60            0            0            1       1.0215        -22.2          138            3         1.06         0.94
          218            1        104.8         76.8            0            0            1       1.0075       -22.63          138            3         1.06         0.94
          219            1            0            0            0            0            1       1.0554       -21.15          345            3         1.06         0.94
          220            2          228           80            0            0            1        1.008       -21.73          138            3         1.06         0.94
          221            2        136.8           56            0            0            1            1       -22.49          138            3         1.06         0.94
...
         ];

%	        bus_i	    type	     Pd	          Qd	       Gs	        Bs	        area	    Vm	         Va	          baseKV	     zone	    Vmax	Vmin
mpc.bus_final = [
            1            1           72         39.2            0            0            1       1.0284         5.95          115            1         1.06  0.94;
            2            1         44.8           12            0            0            1       1.0354         7.74          115            1         1.06  0.94;
            3            1           16            0            0            0            1       0.9971         6.64          230            1         1.06  0.94;
            4            1            0            0            0            0            1       1.0308         4.71          345            1         1.06  0.94;
            5            1        282.4          104            0            0            1       1.0191         4.68          115            1         1.06  0.94;
            6            1           96         32.8            0            0            1       1.0312         6.99          115            1         1.06  0.94;
            7            1            0            0            0            0            1       0.9934         6.19          230            1         1.06  0.94;
            8            2         50.4         11.2            0            0            1       1.0153          2.4          115            1         1.06  0.94;
            9            1         76.8         34.4            0            0            1       1.0034         2.85          115            1         1.06  0.94;
           10            2        122.4         26.4            0            0            1       1.0205         1.35          230            1         1.06  0.94;
           11            1         66.4         16.8            0            0            1       1.0057         2.46          115            1         1.06  0.94;
           12            1            0            0            0            0            1       0.9974         5.21          230            1         1.06  0.94;
           13            1         46.4            8            0            0            1       0.9977        -0.55          115            1         1.06  0.94;
           14            1          128           48            0            0            1       0.9991        -4.81          115            1         1.06  0.94;
           15            1       101.36         18.4            0            0            1       1.0343        -8.59          115            1         1.06  0.94;
           16            1            0            0            0            0            1       1.0315        -2.65          345            1         1.06  0.94;
           17            1        448.8          176            0            0            1       1.0649        -13.1          115            1         1.06  0.94;
           19            1            0            0            0            0            1        0.982         1.08          230            1         1.06  0.94;
           20            2          484           96            0            0            1        1.001        -2.46          115            1         1.06  0.94;
           21            1         61.6          0.8            0            0            1       0.9752         1.62          230            1         1.06  0.94;
           22            1         64.8         18.4            0            0            1       0.9963        -1.97          115            1         1.06  0.94;
           23            1         16.8          5.6            0            0            1       1.0501         3.94          115            1         1.06  0.94;
           24            1            0            0            0            0            1       1.0057         6.02          230            1         1.06  0.94;
           25            1           36          9.6            0            0            1       1.0234         1.44          115            1         1.06  0.94;
           26            1         22.4          7.2            0            0            1       0.9986        -1.73          115            1         1.06  0.94;
           27            1         55.2         10.4            0            0            1        0.975         -4.9          115            1         1.06  0.94;
           33            1           44          4.8            0            0            1       1.0244       -12.02          115            1         1.06  0.94;
           34            1            0            0            0            0            1       1.0414        -7.94          345            1         1.06  0.94;
           35            1            0            0            0            0            1       0.9757       -25.72          115            1         1.06  0.94;
           36            1            0            0            0            0            1       1.0011       -22.59          230            1         1.06  0.94;
           37            1           68         25.6            0            0            1       1.0201       -11.23          115            1         1.06  0.94;
           38            1          124         14.4            0            0            1       1.0202       -12.56          115            1         1.06  0.94;
           39            1            0            0            0            0            1       1.0535        -5.81          345            1         1.06  0.94;
           40            1         36.8        -16.8            0            0            1       1.0216       -12.78          115            1         1.06  0.94;
           41            1         68.8            0            0            0            1       1.0292       -10.45          115            1         1.06  0.94;
           42            1            0            0            0            0            1       1.0448        -7.44          345            1         1.06  0.94;
           43            1         31.2          7.2            0            0            1       1.0006       -16.79          115            1         1.06  0.94;
           44            1          156         23.2            0            0            1       1.0086       -17.47          115            1         1.06  0.94;
           45            1            0            0            0            0            1       1.0215       -14.74          230            1         1.06  0.94;
           46            1            0            0            0            0            1       1.0344       -11.75          345            1         1.06  0.94;
           47            1         46.4         9.44            0            0            1       0.9777       -23.17          115            1         1.06  0.94;
           48            1         32.8         15.2            0            0            1       1.0019       -16.09          115            1         1.06  0.94;
           49            1         73.6         20.8            0            0            1       1.0475        -2.95          115            1         1.06  0.94;
           51            1           -4            4            0            0            1       1.0253        -8.15          115            1         1.06  0.94;
           52            1         48.8         22.4            0            0            1       0.9979       -11.86          115            1         1.06  0.94;
           53            1         55.2          2.4            0            0            1       0.9959        -17.6          115            1         1.06  0.94;
           54            1            8          0.8            0            0            1        1.005       -16.25          115            1         1.06  0.94;
           55            1         17.6            8            0            0            1        1.015       -12.21          115            1         1.06  0.94;
           57            1         78.4           16            0            0            1       1.0335           -8          115            1         1.06  0.94;
           58            1         11.2          0.8            0            0            1       0.9918        -5.99          115            1         1.06  0.94;
           59            1        174.4         84.8            0            0            1       0.9789        -5.29          115            1         1.06  0.94;
           60            1            0            0            0            0            1       1.0246        -9.56          230            1         1.06  0.94;
           61            1        181.6           88            0            0            1       0.9906        -3.47          115            1         1.06  0.94;
           62            1            0            0            0            0            1        1.016         -1.1          230            1         1.06  0.94;
           63            2           56           24            0            0            1       0.9583       -17.62          115            1         1.06  0.94;
           64            1            0            0            0            0            1        0.948       -12.97          230            1         1.06  0.94;
           69            1            0            0            0            0            1        0.963       -25.66          115            1         1.06  0.94;
           70            1         44.8           16            0            0            1       0.9513       -35.16          115            1         1.06  0.94;
           71            1         92.8         30.4            0            0            1       0.9793       -29.88          115            1         1.06  0.94;
           72            1         45.6         15.2            0            0            1       0.9696       -27.48          115            1         1.06  0.94;
           73            1        179.2         56.8            0            0            1       0.9775       -25.77          115            1         1.06  0.94;
           74            1            0            0            0            0            1       0.9964          -22          230            1         1.06  0.94;
           76            2        166.4         85.6            0            0            1       0.9632       -26.54          115            1         1.06  0.94;
           77            1         59.2         22.4            0            0            1       0.9837       -24.94          115            1         1.06  0.94;
           78            1            0            0            0            0            1         0.99       -24.05          115            1         1.06  0.94;
           79            1         38.4         11.2            0            0            1        0.982       -24.97          115            1         1.06  0.94;
           80            1         22.4          5.6            0            0            1       0.9872       -24.97          115            1         1.06  0.94;
           81            1            0            0            0            0            1        1.034       -18.89          345            1         1.06  0.94;
           84            2         29.6         10.4            0            0            1        1.025       -17.16          115            1         1.06  0.94;
           85            1            0            0            0            0            1       0.9872       -17.68          230            1         1.06  0.94;
           86            1            0            0            0            0            1       0.9909       -14.19          230            1         1.06  0.94;
           87            1            0            0            0            0            1       0.9921        -7.77          230            1         1.06  0.94;
           88            1            0            0            0            0            1       1.0151       -20.96          230            1         1.06  0.94;
           89            1        35.36            0            0            0            1       1.0317       -11.13          115            1         1.06  0.94;
           90            1         52.8            0            0            0            1       1.0272       -11.23          115            1         1.06  0.94;
           91            2        13.92            0            0            0            1        1.052         -9.4          115            1         1.06  0.94;
           92            2        12.64            0            0            0            1        1.052         -6.2          115            1         1.06  0.94;
           94            1        48.24            0            0            0            1        0.993        -9.42          115            1         1.06  0.94;
           97            1        31.92            0            0            0            1       1.0183       -13.24          115            1         1.06  0.94;
           98            2        53.36            0            0            0            1            1        -14.6          115            1         1.06  0.94;
           99            1         66.8            0            0            0            1       0.9894       -20.27          115            1         1.06  0.94;
          100            1            0            0            0            0            1        1.006       -14.45          115            1         1.06  0.94;
          102            1        62.24            0            0            0            1       1.0008       -15.23          115            1         1.06  0.94;
          103            1         25.6            0            0            0            1       1.0288       -12.06          115            1         1.06  0.94;
          104            1         6.88            0            0            0            1       0.9958       -17.33          115            1         1.06  0.94;
          105            1        39.68            0            0            0            1       1.0223       -12.94          115            1         1.06  0.94;
          107            1         3.68            0            0            0            1       1.0095       -16.03          115            1         1.06  0.94;
          108            2        89.68            0            0            0            1         0.99       -20.26          115            1         1.06  0.94;
          109            1        24.56            0            0            0            1       0.9749       -26.06          115            1         1.06  0.94;
          110            1         50.4            0            0            0            1        0.973       -24.72          115            1         1.06  0.94;
          112            1        15.68            0            0            0            1       0.9725       -28.69          115            1         1.06  0.94;
          113            1        20.96            0            0            0            1         0.97       -25.38          115            1         1.06  0.94;
          114            1        14.56            0            0            0            1       0.9747       -28.59          115            1         1.06  0.94;
          115            1            0            0            0            0            1       0.9603       -13.57          115            2         1.06  0.94;
          116            1            0            0            0            0            1       1.0249       -12.69          115            2         1.06  0.94;
          117            1            0            0            0          325            1       0.9348        -4.72          115            2         1.06  0.94;
          118            1        11.28          150            0            0            1       0.9298        -4.12          115            2         1.06  0.94;
          119            2            0            0            0            0            1       1.0435         5.17          115            2         1.06  0.94;
          120            1        621.6          172            0           55            1       0.9584        -8.77          115            2         1.06  0.94;
          121            1          428           44            0            0            1       0.9871       -12.64          115            2         1.06  0.94;
          122            1       183.28         9.44            0            0            1       0.9728       -14.36          115            2         1.06  0.94;
          123            1         62.4         1.12            0            0            1       1.0006       -17.64          115            2         1.06  0.94;
          124            2       221.12        47.44            0            0            1       1.0233       -13.49          115            2         1.06  0.94;
          125            2       411.84        66.16            0            0            1       1.0103       -18.43          115            2         1.06  0.94;
          126            1        46.32         4.08            0            0            1       0.9978       -12.86          115            2         1.06  0.94;
          127            1       304.64         29.6            0            0            1       1.0001       -10.52          230            2         1.06  0.94;
          128            1            0            0            0            0            1       1.0024        -4.78          230            2         1.06  0.94;
          129            1            0            0            0            0            1       1.0028         -4.4          230            2         1.06  0.94;
          130            1            0            0            0            0            1       1.0191         5.56          230            2         1.06  0.94;
          131            1            0            0            0            0            1       0.9861         6.06          230            2         1.06  0.94;
          132            1            0            0            0            0            1       1.0045         3.04          230            2         1.06  0.94;
          133            1            0            0            0            0            1        1.002        -5.46          230            2         1.06  0.94;
          134            1            0            0            0            0            1        1.022        -8.04          230            2         1.06  0.94;
          135            1       135.36        33.28            0            0            1       1.0193        -6.76          230            2         1.06  0.94;
          136            1        44.16        14.56            0            0            1       1.0476         1.54          230            2         1.06  0.94;
          137            1       218.88        79.84            0            0            1       1.0471        -1.45          230            2         1.06  0.94;
          138            2       815.36       108.16            0            0            1        1.055        -6.35          230            2         1.06  0.94;
          139            1          476        66.64            0            0            1       1.0117        -3.57          115            2         1.06  0.94;
          140            1       310.16        91.76            0            0            1        1.043        -3.44          230            2         1.06  0.94;
          141            2          116         46.4            0            0            1        1.051         0.05          230            2         1.06  0.94;
          142            1         45.2         19.6            0            0            1       1.0155        -2.77          230            2         1.06  0.94;
          143            2         71.6         28.4            0            0            1       1.0435         4.03          230            2         1.06  0.94;
          144            1            0            0            0            0            1        1.016         -0.7          230            2         1.06  0.94;
          145            1         19.2         11.2            0            0            1       1.0081        -0.16          230            2         1.06  0.94;
          146            2            0            0            0            0            1       1.0528         4.32          230            2         1.06  0.94;
          147            2            0            0            0            0            1       1.0528         8.36          230            2         1.06  0.94;
          148            1         50.4           20            0            0            1       1.0577         0.28          230            2         1.06  0.94;
          149            2            0            0            0            0            1       1.0735         5.23          230            2         1.06  0.94;
          150            1            0            0            0            0            1       0.9869         6.34          230            2         1.06  0.94;
          151            1            0            0            0            0            1       1.0048         4.13          230            2         1.06  0.94;
          152            2         13.6          7.2            0            0            1       1.0535         9.24          230            2         1.06  0.94;
          153            2            0            0            0            0            1       1.0435        10.46          230            2         1.06  0.94;
          154            1           56            4            0         34.5            1       0.9663         -1.8          115            2         1.06  0.94;
          155            1          160           40            0            0            1       1.0177         6.75          230            2         1.06  0.94;
          156            2           60           40            0            0            1        0.963         5.15          115            2         1.06  0.94;
          157            1         98.8       -19.44            0            0            1       0.9845       -11.93          230            2         1.06  0.94;
          158            1            0            0            0            0            1       0.9987        -11.4          230            2         1.06  0.94;
          159            1         26.4         13.2            0            0            1       0.9867        -9.82          230            2         1.06  0.94;
          160            1            0            0            0            0            1       0.9998       -12.55          230            2         1.06  0.94;
          161            1           28           12            0            0            1        1.036         8.85          230            2         1.06  0.94;
          162            1           68         19.2            0            0            1       0.9918         18.5          230            2         1.06  0.94;
          163            1            0         0.32            0            0            1        1.041         2.91          230            2         1.06  0.94;
          164            1            0            0            0         -212            1       0.9839         9.66          230            2         1.06  0.94;
          165            1            0            0            0            0            1       1.0002        26.31          230            2         1.06  0.94;
          166            1            0            0            0         -103            1       0.9973        30.22          230            2         1.06  0.94;
          167            1       239.92        76.56            0            0            1       0.9715        -6.91          230            2         1.06  0.94;
          168            1            0            0            0            0            1       1.0024         -4.8          230            2         1.06  0.94;
          169            1            0            0            0            0            1       0.9879        -6.68          230            2         1.06  0.94;
          170            2       385.44          164            0            0            1        0.929         0.09          115            2         1.06  0.94;
          171            2       610.88          150            0            0            1       0.9829        -9.94          115            2         1.06  0.94;
          172            1         21.2            0            0            0            1       1.0244        -6.22          115            2         1.06  0.94;
          173            1        130.8         34.4            0           53            1       0.9837       -12.75          115            2         1.06  0.94;
...